*----------------------------------------------------------------------
* SPICE Model generated by Murata Manufacturing Co., Ltd.
* Copyright(C) Murata Manufacturing Co., Ltd.
* MURATA P/N : BLM18SG260TZ1
* Property : Z@100MHz = 26[ohm]
*----------------------------------------------------------------------
* Applicable Conditions:
*   Frequency Range = 1MHz - 3GHz
*   Temperature = 25 degC
*   DC Bias Current = 0 A
*   Small Signal Operation
*----------------------------------------------------------------------
.SUBCKT BLM18SG260TZ1 port1 port2
R1 port1 1 18.49
C2 1 2 1.799e-9
L1 port1 2 1.312e-7
R2 2 3 13.20
L2 2 3 1.958e-8
C1 port1 3 8.717e-13
R3 3 4 243.7
L3 3 4 7.225e-10
R4 4 port2 4.000e-3
.ENDS BLM18SG260TZ1
*----------------------------------------------------------------------
