*----------------------------------------------------------------------
* SPICE Model generated by Murata Manufacturing Co., Ltd.
* Copyright(C) Murata Manufacturing Co., Ltd.
* MURATA P/N : BLM18BA220SN1
* Property : Z@100MHz = 22[ohm]
*----------------------------------------------------------------------
* Applicable Conditions:
*   Frequency Range = 1MHz - 3GHz
*   Temperature = 25 degC
*   DC Bias Current = 0 A
*   Small Signal Operation
*----------------------------------------------------------------------
.SUBCKT BLM18BA220SN1 port1 port2
R1 port1 1 317.9
C2 1 2 6.474e-13
L1 port1 2 3.235e-8
R2 2 3 1.033
L2 2 3 3.776e-9
C1 port1 3 5.196e-13
R3 3 4 7430
L3 3 4 1.164e-9
R4 4 port2 1.500e-1
.ENDS BLM18BA220SN1
*----------------------------------------------------------------------
